
**** 01/07/18 21:26:10 ******* PSpice Lite (March 2016) ******* ID# 10813 ****

 *gilbert multiplier


 ****     CIRCUIT DESCRIPTION


******************************************************************************



.lib 'nom.lib'
rc4 1 2 10k
rl1 1 3 11k
rl2 1 4 11k
re1 14 13 15k
re2 15 16 15k
q2 2 2 6 q2n2222
q1 2 2 5 q2n2222
q3 3 5 7 q2n2222
q4 4 6 7 q2n2222
q5 3 6 8 q2n2222
q6 4 5 8 q2n2222
q7 7 11 15 q2n2222
q8 8 12 16 q2n2222
q9 6 10 14 q2n2222
q10 5 9 13 q2n2222
ix2 14 17 dc 1m
ix1 13 17 dc 1m
iy1 15 17 dc 1m
iy2 16 17 dc 1m
vcc 1 0 dc 15
vee 0 17 dc 15
*vx 9 10 dc 0V
*vx 9 10 sin(0 0.5V 100Hz)
*vy 12 11 dc 7.5V
*vy 12 11 sin(0 0.5V 1kHz)
vx 9 10 pulse(0 1 10u 10u 10u 0.1 0.2)
vy 12 11 sin(0 0.5V 100Hz)
*.dc lin vx -20V 20V 5V vy -20V 20V 5
.tran 0 1000ms
.probe
.end

**** 01/07/18 21:26:10 ******* PSpice Lite (March 2016) ******* ID# 10813 ****

 *gilbert multiplier


 ****     BJT MODEL PARAMETERS


******************************************************************************




               q2n2222         
               NPN             
       LEVEL    1            
          IS   14.340000E-15 
          BF  255.9          
          NF    1            
         VAF   74.03         
         IKF     .2847       
         ISE   14.340000E-15 
          NE    1.307        
          BR    6.092        
          NR    1            
         ISS    0            
          RB   10            
          RE    0            
          RC    1            
         CJE   22.010000E-12 
         VJE     .75         
         MJE     .377        
         CJC    7.306000E-12 
         VJC     .75         
         MJC     .3416       
        XCJC    1            
         CJS    0            
         VJS     .75         
          TF  411.100000E-12 
         XTF    3            
         VTF    1.7          
         ITF     .6          
          TR   46.910000E-09 
         XTB    1.5          
          KF    0            
          AF    1            
          CN    2.42         
           D     .87         


**** 01/07/18 21:26:10 ******* PSpice Lite (March 2016) ******* ID# 10813 ****

 *gilbert multiplier


 ****     INITIAL TRANSIENT SOLUTION       TEMPERATURE =   27.000 DEG C


******************************************************************************



 NODE   VOLTAGE     NODE   VOLTAGE     NODE   VOLTAGE     NODE   VOLTAGE


(    1)   15.0000  (    2)   -5.1273  (    3)    4.0720  (    4)    4.0720      

(    5)   -5.7733  (    6)   -5.7733  (    7)   -6.3978  (    8)   -6.3978      

(    9)-88.19E+03  (   10)-88.19E+03  (   11)-88.19E+03  (   12)-88.19E+03      

(   13)-88.19E+03  (   14)-88.19E+03  (   15)-88.19E+03  (   16)-88.19E+03      

(   17)  -15.0000  




    VOLTAGE SOURCE CURRENTS
    NAME         CURRENT

    vcc         -4.000E-03
    vee         -4.000E-03
    vx           0.000E+00
    vy           0.000E+00

    TOTAL POWER DISSIPATION   1.20E-01  WATTS



          JOB CONCLUDED

**** 01/07/18 21:26:10 ******* PSpice Lite (March 2016) ******* ID# 10813 ****

 *gilbert multiplier


 ****     JOB STATISTICS SUMMARY


******************************************************************************



  Total job time (using Solver 1)   =         .05
